18 
C3_BENZ_C rotated 
C          0.3739780     -1.3508029      0.0000000
C          1.3568187     -0.3515270      0.0000000
C          0.9828406      0.9992759      0.0000000
C         -0.3739780      1.3508029      0.0000000
C         -1.3568187      0.3515270      0.0000000
C         -0.9828406     -0.9992759      0.0000000
C         -0.7608658      2.7482355      0.0000000
X          0.0000000      3.7112465      0.0000000
H         -1.8029860      3.1317731      0.0000000
C         -1.9996089     -2.0330469      0.0000000
X         -3.2140338     -1.8556233      0.0000000
H         -1.8107021     -3.1273182      0.0000000
C          2.7604747     -0.7151886      0.0000000
X          3.2140338     -1.8556233      0.0000000
H          3.6136881     -0.0044549      0.0000000
H          0.6672656     -2.4101532      0.0000000
H          1.7536211      1.7829456      0.0000000
H         -2.4208867      0.6272076      0.0000000
