26 
C2_DPBY_NH2_H_H rotated 
C          0.0000000     -6.3012795      0.0000000
C          1.2085251     -5.6032813      0.0000000
C          1.2083216     -4.2084745      0.0000000
C          0.0000000     -3.5110778      0.0000000
C         -1.2083216     -4.2084745      0.0000000
C         -1.2085251     -5.6032813      0.0000000
C          0.0000000     -1.9712943      0.0000000
C          0.0000000     -0.7699682      0.0000000
C          0.0000000      0.7699682      0.0000000
C          0.0000000      1.9712943      0.0000000
C          0.0000000      3.5110778      0.0000000
C          1.2083216      4.2084745      0.0000000
C         -1.2083216      4.2084745      0.0000000
C          1.2085251      5.6032813      0.0000000
C         -1.2085251      5.6032813      0.0000000
C          0.0000000      6.3012795      0.0000000
X          0.0000000     -7.6822795      0.0000000
X          0.0000000      7.6822795      0.0000000
H         -2.1600482     -3.6585135      0.0000000
H          2.1600482      3.6585135      0.0000000
H         -2.1604260      6.1529406      0.0000000
H          2.1604260     -6.1529406      0.0000000
H         -2.1604260     -6.1529406      0.0000000
H          2.1604260      6.1529406      0.0000000
H          2.1600482     -3.6585135      0.0000000
H         -2.1600482      3.6585135      0.0000000
