26 
C2_PYRN_NH2_H_H rotated 
C          0.0000000     -3.5159329      0.0000000
C          1.2107139     -2.8271606      0.0000000
C          1.2288879     -1.4264374      0.0000000
C          0.0000000     -0.7166561      0.0000000
C         -1.2288879     -1.4264374      0.0000000
C         -1.2107139     -2.8271606      0.0000000
C          2.4588673     -0.6782389      0.0000000
C          0.0000000      0.7166561      0.0000000
C          1.2288879      1.4264374      0.0000000
C          2.4588673      0.6782389      0.0000000
C          1.2107139      2.8271606      0.0000000
C          0.0000000      3.5159329      0.0000000
C         -1.2107139      2.8271606      0.0000000
C         -1.2288879      1.4264374      0.0000000
C         -2.4588673      0.6782389      0.0000000
C         -2.4588673     -0.6782389      0.0000000
X          0.0000000     -4.8969329      0.0000000
X          0.0000000      4.8969329      0.0000000
H         -3.4000417     -1.2460694      0.0000000
H          3.4000417      1.2460694      0.0000000
H         -3.4000417      1.2460694      0.0000000
H          3.4000417     -1.2460694      0.0000000
H         -2.1596252     -3.3819651      0.0000000
H          2.1596252      3.3819651      0.0000000
H          2.1596252     -3.3819651      0.0000000
H         -2.1596252      3.3819651      0.0000000
