32 
C2_TPNY_NH2_H_H_H_H rotated 
C         -1.2068665      5.0295533      0.0000000
C         -1.2073231      3.6314640      0.0000000
C          0.0018219      2.9352619      0.0000000
C          1.2071536      3.6316374      0.0000000
C          1.2081490      5.0268233      0.0000000
C         -0.0006617      5.7263582      0.0000000
C         -0.0000591      1.3951439      0.0000000
C          1.2074596      0.6980252      0.0000000
C         -1.2085375      0.6987129      0.0000000
C          1.2085375     -0.6987129      0.0000000
C         -1.2074596     -0.6980252      0.0000000
C          0.0000591     -1.3951439      0.0000000
C         -0.0018219     -2.9352619      0.0000000
C         -1.2071536     -3.6316374      0.0000000
C          1.2073231     -3.6314640      0.0000000
C         -1.2081490     -5.0268233      0.0000000
C          1.2068665     -5.0295533      0.0000000
C          0.0006617     -5.7263582      0.0000000
X          0.0000000      7.1056459      0.0000000
X         -0.0000000     -7.1056459      0.0000000
H          2.1590786     -1.2482703      0.0000000
H         -2.1590786      1.2482703      0.0000000
H          2.1596557      1.2478276      0.0000000
H         -2.1596557     -1.2478276      0.0000000
H          2.1598489      3.0837696      0.0000000
H         -2.1598489     -3.0837696      0.0000000
H          2.1585077      5.5777251      0.0000000
H         -2.1585077     -5.5777251      0.0000000
H          2.1589803     -5.5784335      0.0000000
H         -2.1589803      5.5784335      0.0000000
H          2.1613777     -3.0844623      0.0000000
H         -2.1613777      3.0844623      0.0000000
