60 
C3_TPOB_CHO_C rotated 
C          0.7089664     -1.1830076      0.0000000
C          1.4219049      0.0159939      0.0000000
C          0.6700314      1.2054867      0.0000000
C         -0.7248036      1.2234088      0.0000000
C         -1.3789978     -0.0224791      0.0000000
C         -0.6971013     -1.2394027      0.0000000
H          2.5056667      0.0600431      0.0000000
H         -1.3048322      2.1399494      0.0000000
H         -1.2008345     -2.1999926      0.0000000
O          1.4654847      2.3339224      0.0000000
O          1.2884937     -2.4361082      0.0000000
O         -2.7539785      0.1021858      0.0000000
C          0.8778424      3.6103803      0.0000000
C          1.7804157      4.6771432      0.0000000
C         -0.5093983      3.7841791      0.0000000
C          1.2574051      5.9692707      0.0000000
H          2.8515285      4.4867906      0.0000000
C         -1.0037335      5.0888206      0.0000000
H         -1.1793429      2.9282275      0.0000000
C         -0.1267228      6.1761932      0.0000000
C          2.6877598     -2.5654239      0.0000000
C          3.1603170     -3.8804568      0.0000000
C          3.5318944     -1.4509377      0.0000000
C          4.5408375     -4.0735801      0.0000000
H          2.4599104     -4.7128914      0.0000000
C          4.9089147     -1.6751516      0.0000000
H          3.1255909     -0.4427728      0.0000000
C          5.4121016     -2.9783515      0.0000000
C         -3.5656022     -1.0449563      0.0000000
C         -4.9407327     -0.7966864      0.0000000
C         -3.0224961     -2.3332414      0.0000000
C         -5.7982426     -1.8956906      0.0000000
H         -5.3114388      0.2261008      0.0000000
C         -3.9051812     -3.4136690      0.0000000
H         -1.9462480     -2.4854547      0.0000000
C         -5.2853788     -3.1978417      0.0000000
C         -0.6566992      7.5258691      0.0000000
X          0.0000000      8.5627168      0.0000000
H         -1.7330265      7.7990631      0.0000000
C          6.8459434     -3.1942164      0.0000000
X          7.4155303     -4.2813584      0.0000000
H          7.6207000     -2.3986866      0.0000000
C         -6.1892442     -4.3316527      0.0000000
X         -7.4155303     -4.2813584      0.0000000
H         -5.8876735     -5.4003766      0.0000000
C          2.2002208      7.1532390      0.0000000
H          3.1300098      6.9224600     -0.5429664
H          2.4756863      7.4435098      1.0258853
H          1.7400024      8.0293483     -0.4829189
C          5.0947763     -5.4820666      0.0000000
H          4.4300214     -6.1718980     -0.5429664
H          5.2084254     -5.8657621      1.0258853
H          6.0836184     -5.5215605     -0.4829189
C         -7.2949971     -1.6711724      0.0000000
H         -7.5600311     -0.7505621     -0.5429664
H         -7.6841117     -1.5777476      1.0258853
H         -7.8236208     -2.5077879     -0.4829189
F         -3.4243751     -4.6588128      0.0000000
F          5.7468378     -0.6361894      0.0000000
F         -2.3224627      5.2950023      0.0000000
