42 
C3_TPBZ_NH2_H_H_H rotated 
C          1.2113878      0.6995967      0.0000000
C         -0.0000179      1.3991426      0.0000000
C         -1.2115624      0.6992942      0.0000000
C         -1.2116841     -0.6995868      0.0000000
C          0.0001746     -1.3988910      0.0000000
C          1.2117020     -0.6995558      0.0000000
C         -2.5489467     -1.4720325      0.0000000
C         -3.7575729     -0.7948340      0.0000000
C         -2.5673453     -2.8570069      0.0000000
C         -4.9665608     -1.5033387      0.0000000
C         -3.7848558     -3.5504760      0.0000000
C         -4.9764531     -2.8735739      0.0000000
C         -0.0003442      2.9434689      0.0000000
C          1.1904400      3.6515706      0.0000000
C         -1.1905679      3.6518897      0.0000000
C          1.1813509      5.0528372      0.0000000
C         -1.1823746      5.0530193      0.0000000
C         -0.0003615      5.7465218      0.0000000
C          2.5492909     -1.4714364      0.0000000
C          2.5671329     -2.8567365      0.0000000
C          3.7579132     -0.7948828      0.0000000
C          3.7852099     -3.5494985      0.0000000
C          4.9672303     -1.5025432      0.0000000
C          4.9768146     -2.8729479      0.0000000
X         -0.0000000      7.1275217      0.0000000
X         -6.1726148     -3.5637608      0.0000000
X          6.1726148     -3.5637608      0.0000000
H          2.1632921      1.2492501      0.0000000
H          0.0002363     -2.4980910      0.0000000
H         -2.1635284      1.2488409      0.0000000
H          2.1454620      3.1073524      0.0000000
H         -3.7637771      0.3043484      0.0000000
H          1.6183151     -3.4117008      0.0000000
H          2.1300337      5.6080321      0.0000000
H         -5.9217152     -0.9593527      0.0000000
H          3.7916814     -4.6486794      0.0000000
H          5.9226117     -0.9589560      0.0000000
H         -2.1308256      5.6086101      0.0000000
H         -3.7917861     -4.6496542      0.0000000
H          3.7642465      0.3042988      0.0000000
H         -2.1456538      3.1077837      0.0000000
H         -1.6185928     -3.4120825      0.0000000
