120
H6_HPCO_NH2_H_H_H_H_H_H
C         -0.0000625     -1.3716524      0.0000000
C          1.1878545     -0.6858803      0.0000000
C          1.1879170      0.6857720      0.0000000
C          0.0000625      1.3716524      0.0000000
C         -1.1878545      0.6858803      0.0000000
C         -1.1879170     -0.6857720      0.0000000
C          0.0002223      2.8818056      0.0000000
C          1.2326274      3.5659345      0.0000000
C         -1.2320913      3.5660995      0.0000000
C          1.2232803      4.9681597      0.0000000
C         -1.2225564      4.9683234      0.0000000
C          0.0004085      5.6639057      0.0000000
C         -2.4956058      1.4410953      0.0000000
C         -3.7043784      0.7160274      0.0000000
C         -2.4718761      2.8504539      0.0000000
C         -4.9139725      1.4253968      0.0000000
C         -3.6909123      3.5434717      0.0000000
C         -4.9048819      2.8323066      0.0000000
C         -2.4958280     -1.4407103      0.0000000
C         -3.7045036     -0.7154806      0.0000000
C         -2.4722871     -2.8500721      0.0000000
C         -4.9141926     -1.4246880      0.0000000
C         -3.6914161     -3.5429266      0.0000000
C         -4.9052905     -2.8315990      0.0000000
C         -0.0002223     -2.8818056      0.0000000
C         -1.2326274     -3.5659345      0.0000000
C          1.2320913     -3.5660995      0.0000000
C         -1.2232803     -4.9681597      0.0000000
C          1.2225564     -4.9683234      0.0000000
C         -0.0004085     -5.6639057      0.0000000
C          2.4956058     -1.4410953      0.0000000
C          2.4718761     -2.8504539      0.0000000
C          3.7043784     -0.7160274      0.0000000
C          3.6909123     -3.5434717      0.0000000
C          4.9139725     -1.4253968      0.0000000
C          4.9048819     -2.8323066      0.0000000
C          2.4958280      1.4407103      0.0000000
C          3.7045036      0.7154806      0.0000000
C          2.4722871      2.8500721      0.0000000
C          4.9141926      1.4246880      0.0000000
C          3.6914161      3.5429266      0.0000000
C          4.9052905      2.8315990      0.0000000
C         -6.2389555     -3.6014975      0.0000000
C         -7.4471190     -2.9037781      0.0000000
C         -6.2391540     -4.9963266      0.0000000
C         -8.6551605     -3.6008126      0.0000000
C         -7.4474779     -5.6937240      0.0000000
C         -8.6553902     -4.9962394      0.0000000
C          0.0004894      7.2038427      0.0000000
C         -1.2073687      7.9014292      0.0000000
C          1.2088139      7.9012833      0.0000000
C         -1.2071707      9.2965671      0.0000000
C          1.2091851      9.2959952      0.0000000
C          0.0008248      9.9939075      0.0000000
C          6.2389555      3.6014975      0.0000000
C          7.4471190      2.9037781      0.0000000
C          6.2391540      4.9963266      0.0000000
C          8.6551605      3.6008126      0.0000000
C          7.4474779      5.6937240      0.0000000
C          8.6553902      4.9962394      0.0000000
C          6.2384661     -3.6023452      0.0000000
C          6.2383051     -4.9975052      0.0000000
C          7.4465228     -2.9051026      0.0000000
C          7.4459754     -5.6951826      0.0000000
C          8.6546486     -3.6028430      0.0000000
C          8.6545654     -4.9976680      0.0000000
C         -0.0004894     -7.2038427      0.0000000
C         -1.2088139     -7.9012833      0.0000000
C          1.2073687     -7.9014292      0.0000000
C         -1.2091851     -9.2959952      0.0000000
C          1.2071707     -9.2965671      0.0000000
C         -0.0008248     -9.9939075      0.0000000
C         -6.2384661      3.6023452      0.0000000
C         -6.2383051      4.9975052      0.0000000
C         -7.4465228      2.9051026      0.0000000
C         -7.4459754      5.6951826      0.0000000
C         -8.6546486      3.6028430      0.0000000
C         -8.6545654      4.9976680      0.0000000
X          0.0000000     11.2939388      0.0000000
X          9.7808379      5.6469694      0.0000000
X         -9.7808379      5.6469694      0.0000000
X         -9.7808379     -5.6469694      0.0000000
X         -0.0000000    -11.2939388      0.0000000
X          9.7808379     -5.6469694      0.0000000
H          7.4473904      6.7929740      0.0000000
H         -2.1591928      9.8461163      0.0000000
H         -9.6065832      3.0531423      0.0000000
H         -7.4473904     -6.7929740      0.0000000
H          2.1591928     -9.8461163      0.0000000
H          9.6065832     -3.0531423      0.0000000
H          2.1604980      9.8458758      0.0000000
H         -7.4465296      6.7939841      0.0000000
H         -9.6070276     -3.0518918      0.0000000
H         -2.1604980     -9.8458758      0.0000000
H          7.4465296     -6.7939841      0.0000000
H          9.6070276      3.0518918      0.0000000
H          5.2874361      5.5462513      0.0000000
H         -2.1594764      7.3521797      0.0000000
H         -7.4469126      1.8059284      0.0000000
H         -5.2874361     -5.5462513      0.0000000
H          2.1594764     -7.3521797      0.0000000
H          7.4469126     -1.8059284      0.0000000
H          5.2861893     -5.5466655      0.0000000
H          7.4466479      1.8046414      0.0000000
H          2.1604586      7.3513069      0.0000000
H         -5.2861893      5.5466655      0.0000000
H         -7.4466479     -1.8046414      0.0000000
H         -2.1604586     -7.3513069      0.0000000
H         -3.6986054     -4.6420905      0.0000000
H         -2.1708656      5.5241315      0.0000000
H         -5.8694710      0.8820410      0.0000000
H          2.1708656     -5.5241315      0.0000000
H          5.8694710     -0.8820410      0.0000000
H          3.6986054      4.6420905      0.0000000
H         -5.8695972     -0.8812447      0.0000000
H         -3.6979789      4.6425979      0.0000000
H          2.1716183      5.5238426      0.0000000
H          5.8695972      0.8812447      0.0000000
H          3.6979789     -4.6425979      0.0000000
H         -2.1716183     -5.5238426      0.0000000
