132
H6_HPCO_CHO_H_H_H_H_H_H
C          0.1214094     -1.3662686      0.0000000
C          1.2439280     -0.5779907      0.0000000
C          1.1225187      0.7882779      0.0000000
C         -0.1214094      1.3662686      0.0000000
C         -1.2439280      0.5779907      0.0000000
C         -1.1225187     -0.7882779      0.0000000
C         -0.2549873      2.8705026      0.0000000
C          0.9119902      3.6610836      0.0000000
C         -1.5430592      3.4429759      0.0000000
C          0.7785007      5.0569716      0.0000000
C         -1.6577408      4.8405348      0.0000000
C         -0.5011808      5.6416882      0.0000000
C         -2.6134219      1.2144258      0.0000000
C         -3.7532342      0.3851595      0.0000000
C         -2.7145963      2.6203484      0.0000000
C         -5.0208965      0.9846217      0.0000000
C         -3.9902156      3.2026871      0.0000000
C         -5.1364357      2.3868088      0.0000000
C         -2.3584345     -1.6560768      0.0000000
C         -3.6265865     -1.0407351      0.0000000
C         -2.2101750     -3.0578164      0.0000000
C         -4.7687162     -1.8542845      0.0000000
C         -3.3631557     -3.8559131      0.0000000
C         -4.6352549     -3.2548793      0.0000000
C          0.2549873     -2.8705026      0.0000000
C         -0.9119902     -3.6610836      0.0000000
C          1.5430592     -3.4429759      0.0000000
C         -0.7785007     -5.0569716      0.0000000
C          1.6577408     -4.8405348      0.0000000
C          0.5011808     -5.6416882      0.0000000
C          2.6134219     -1.2144258      0.0000000
C          2.7145963     -2.6203484      0.0000000
C          3.7532342     -0.3851595      0.0000000
C          3.9902156     -3.2026871      0.0000000
C          5.0208965     -0.9846217      0.0000000
C          5.1364357     -2.3868088      0.0000000
C          2.3584345      1.6560768      0.0000000
C          3.6265865      1.0407351      0.0000000
C          2.2101750      3.0578164      0.0000000
C          4.7687162      1.8542845      0.0000000
C          3.3631557      3.8559131      0.0000000
C          4.6352549      3.2548793      0.0000000
C         -5.8954988     -4.1398604      0.0000000
C         -7.1607044     -3.5518757      0.0000000
C         -5.7721724     -5.5292268      0.0000000
C         -8.3022711     -4.3531539      0.0000000
C         -6.9139881     -6.3308916      0.0000000
C         -8.1789228     -5.7431185      0.0000000
C         -0.6374749      7.1755819      0.0000000
C         -1.9023646      7.7634613      0.0000000
C          0.5043376      7.9772897      0.0000000
C         -2.0257189      9.1531352      0.0000000
C          0.3811936      9.3665546      0.0000000
C         -0.8842251      9.9547141      0.0000000
C          5.8954988      4.1398604      0.0000000
C          7.1607044      3.5518757      0.0000000
C          5.7721724      5.5292268      0.0000000
C          8.3022711      4.3531539      0.0000000
C          6.9139881      6.3308916      0.0000000
C          8.1789228      5.7431185      0.0000000
C          6.5329737     -3.0357215      0.0000000
C          6.6563667     -4.4254141      0.0000000
C          7.6745370     -2.2342345      0.0000000
C          7.9210775     -5.0134007      0.0000000
C          8.9397070     -2.8222436      0.0000000
C          9.0631479     -4.2115956      0.0000000
C          0.6374749     -7.1755819      0.0000000
C         -0.5043376     -7.9772897      0.0000000
C          1.9023646     -7.7634613      0.0000000
C         -0.3811936     -9.3665546      0.0000000
C          2.0257189     -9.1531352      0.0000000
C          0.8842251     -9.9547141      0.0000000
C         -6.5329737      3.0357215      0.0000000
C         -6.6563667      4.4254141      0.0000000
C         -7.6745370      2.2342345      0.0000000
C         -7.9210775      5.0134007      0.0000000
C         -8.9397070      2.8222436      0.0000000
C         -9.0631479      4.2115956      0.0000000
C         -1.0224733     11.4985681      0.0000000
X         -0.0000000     12.2176289      0.0000000
H         -2.0298461     11.9658108      0.0000000
C          9.4468155      6.6347719      0.0000000
X         10.5807770      6.1088144      0.0000000
H          9.3477731      7.7408037      0.0000000
C        -10.4692888      4.8637962      0.0000000
X        -10.5807770      6.1088144      0.0000000
H        -11.3776192      4.2250072      0.0000000
C         -9.4468155     -6.6347719      0.0000000
X        -10.5807770     -6.1088144      0.0000000
H         -9.3477731     -7.7408037      0.0000000
C          1.0224733    -11.4985681      0.0000000
X          0.0000000    -12.2176289      0.0000000
H          2.0298461    -11.9658108      0.0000000
C         10.4692888     -4.8637962      0.0000000
X         10.5807770     -6.1088144      0.0000000
H         11.3776192     -4.2250072      0.0000000
H          6.8165529      7.4258148      0.0000000
H         -3.0226678      9.6162154      0.0000000
H         -9.8392207      2.1904006      0.0000000
H         -6.8165529     -7.4258148      0.0000000
H          3.0226678     -9.6162154      0.0000000
H          9.8392207     -2.1904006      0.0000000
H          1.2800721      9.9985218      0.0000000
H         -8.0189378      6.1078359      0.0000000
H         -9.2990099     -3.8906859      0.0000000
H         -1.2800721     -9.9985218      0.0000000
H          8.0189378     -6.1078359      0.0000000
H          9.2990099      3.8906859      0.0000000
H          4.7754933      5.9927079      0.0000000
H         -2.8020907      7.1320524      0.0000000
H         -7.5775839      1.1393445      0.0000000
H         -4.7754933     -5.9927079      0.0000000
H          2.8020907     -7.1320524      0.0000000
H          7.5775839     -1.1393445      0.0000000
H          5.7566247     -5.0567348      0.0000000
H          7.2575732      2.4570158      0.0000000
H          1.5009485      7.5137507      0.0000000
H         -5.7566247      5.0567348      0.0000000
H         -7.2575732     -2.4570158      0.0000000
H         -1.5009485     -7.5137507      0.0000000
H         -3.2729763     -4.9513950      0.0000000
H         -2.6515457      5.3101781      0.0000000
H         -5.9245220      0.3587831      0.0000000
H          2.6515457     -5.3101781      0.0000000
H          5.9245220     -0.3587831      0.0000000
H          3.2729763      4.9513950      0.0000000
H         -5.7684935     -1.3975857      0.0000000
H         -4.0945915      4.2968691      0.0000000
H          1.6739020      5.6944548      0.0000000
H          5.7684935      1.3975857      0.0000000
H          4.0945915     -4.2968691      0.0000000
H         -1.6739020     -5.6944548      0.0000000
