16
L2_BENZ_NH2_NH2_H
C          1.2138353      0.7008081      0.0000000
C          0.0000000      1.4016162      0.0000000
C         -1.2138353      0.7008081      0.0000000
C         -1.2138353     -0.7008081      0.0000000
C          0.0000000     -1.4016162      0.0000000
C          1.2138353     -0.7008081      0.0000000
X          0.0000000      2.7016162      0.0000000
X          0.0000000     -2.7016162      0.0000000
N          2.4522516      1.4158081      0.0000000
H          2.4466048      2.4368691      0.0000000
H          3.3336930      0.9003874      0.0000000
N         -2.4522516     -1.4158081      0.0000000
H         -2.4466048     -2.4368691      0.0000000
H         -3.3336930     -0.9003874      0.0000000
H          2.1657704     -1.2504081      0.0000000
H         -2.1657704      1.2504081      0.0000000
