26
L2_BDFN_CHO_CHO_H
C         -1.4252741     -0.2094652      0.0000000
C         -0.4851452     -1.2506182      0.0000000
C          0.8793791     -1.0202725      0.0000000
C          1.4252741      0.2094652      0.0000000
C          0.4851452      1.2506182      0.0000000
C         -0.8793791      1.0202725      0.0000000
C         -0.6000349      3.3761523      0.0000000
C         -1.5563563      2.3264057      0.0000000
C          1.5563563     -2.3264057      0.0000000
C          0.6000349     -3.3761523      0.0000000
O          0.6866423      2.8173853      0.0000000
O         -0.6866423     -2.8173853      0.0000000
C         -0.9265679      4.8913401      0.0000000
X          0.0000000      5.7303704      0.0000000
H         -1.9836394      5.2315098      0.0000000
C          0.9265679     -4.8913401      0.0000000
X         -0.0000000     -5.7303704      0.0000000
H          1.9836394     -5.2315098      0.0000000
C          2.8497690      0.5365165      0.0000000
O          3.7483642     -0.1370516     -0.4951158
H          3.3062364      1.4428001      0.4510023
C         -2.8497690     -0.5365165      0.0000000
O         -3.7483642      0.1370516     -0.4951158
H         -3.3062364     -1.4428001      0.4510023
H         -2.6466826      2.4586407      0.0000000
H          2.6466826     -2.4586407      0.0000000
