21
L2_DFDB_NH2_H_H_H
C          1.0967975      2.5169202      0.0000000
C         -0.6598245      1.2060681      0.0000000
C         -1.1334013      2.5408696      0.0000000
C         -0.0265845      3.3564959      0.0000000
C         -1.3441753      0.0000000      0.0000000
C         -0.6598245     -1.2060681      0.0000000
C          1.0967975     -2.5169202      0.0000000
C         -0.0265845     -3.3564959      0.0000000
C         -1.1334013     -2.5408696      0.0000000
N          0.7187368      1.2467841      0.0000000
N          0.7187368     -1.2467841      0.0000000
B          1.6413169      0.0000000      0.0000000
F          2.4279597      0.0000000     -1.1297077
F          2.4279597      0.0000000      1.1297077
X          0.0000000      4.6562240      0.0000000
X          0.0000000     -4.6562240      0.0000000
H          2.1615851      2.7898087      0.0000000
H          2.1615851     -2.7898087      0.0000000
H         -2.1915338      2.8385210      0.0000000
H         -2.1915338     -2.8385210      0.0000000
H         -2.4433753      0.0000000      0.0000000
