102
R4_ETKB_CHO_H_H_CHO_H
C          0.5158379      0.4387969      0.0039895
C         -0.5157834     -0.4387716      0.0051006
C         -1.9194028     -0.0038470     -0.0014736
C         -2.3567496      1.0122364     -0.8501124
C         -2.8520527     -0.6266242      0.8277802
C         -3.6780523      1.4114371     -0.8482088
H         -1.6540399      1.4796807     -1.5260944
C         -4.1712075     -0.2259810      0.8273196
H         -2.5277481     -1.4195888      1.4844473
C         -4.6066658      0.8025126     -0.0065723
H         -4.0012985      2.1861647     -1.5267424
H         -4.8753286     -0.7027091      1.4953792
C          1.9194240      0.0038876     -0.0082811
C          2.8550136      0.6253061      0.8186774
C          2.3537524     -1.0108006     -0.8601331
C          4.1741573      0.2246681      0.8128765
H          2.5330444      1.4171912      1.4777918
C          3.6750524     -1.4100001     -0.8635751
H          1.6486461     -1.4771372     -1.5343824
C          4.6066495     -0.8024546     -0.0242425
H          4.8806469      0.7003014      1.4792136
H          3.9958855     -2.1836124     -1.5445222
C         -0.3115278     -1.8939582      0.0129667
C          0.6223475     -2.4876600      0.8610706
C         -1.0768208     -2.7155687     -0.8144584
C          0.8045291     -3.8558760      0.8603939
H          1.1972582     -1.8682720      1.5356765
C         -0.8928681     -4.0818934     -0.8127751
H         -1.8083489     -2.2690166     -1.4706868
C          0.0535413     -4.6757365      0.0205666
H          1.5182532     -4.2984360      1.5385070
H         -1.4771588     -4.7011775     -1.4794469
C          0.3116158      1.8939680      0.0149682
C         -0.6192412      2.4862747      0.8673550
C          1.0739691      2.7169372     -0.8138191
C         -0.8014200      3.8544895      0.8695701
H         -1.1917552      1.8657790      1.5429804
C          0.8900275      4.0832568     -0.8092410
H          1.8031617      2.2714646     -1.4733722
C         -0.0534159      4.6757290      0.0284284
H         -1.5127311      4.2959341      1.5509377
H          1.4719497      4.7036356     -1.4769657
C          6.0093739     -1.2392704     -0.0198527
C          7.0459480     -0.3105409      0.0453932
C          6.3309126     -2.5936552     -0.0857433
C          8.3642644     -0.7229030      0.0479546
C          7.6497349     -3.0082536     -0.0792179
C          8.6709293     -2.0715746     -0.0137424
C         -6.0093644      1.2393165      0.0035138
C         -7.0457031      0.3104781      0.0709150
C         -6.3311311      2.5938067     -0.0590126
C         -8.3640009      0.7228317      0.0788330
C         -7.6499207      3.0083900     -0.0471253
C         -8.6708790      2.0716018      0.0204380
C          0.2597786     -6.1303333      0.0117692
C         -0.8232885     -7.0044081     -0.0533493
C          1.5452315     -6.6650453      0.0732576
C         -0.6276500     -8.3717734     -0.0600581
C          1.7429870     -8.0332577      0.0625777
C          0.6545389     -8.8908766     -0.0027136
C         -0.2596789      6.1303377      0.0227499
C          0.8231528      7.0045213     -0.0447788
C         -1.5449039      6.6649443      0.0896785
C          0.6274957      8.3718952     -0.0485493
C         -1.7426921      8.0331718      0.0819457
C         -0.6544800      8.8908999      0.0141981
C         -0.9459156     10.4159088      0.0122681
X          0.0000000     11.2329726     -0.0000000
H         -1.9946755     10.7807754      0.0217864
C         10.1294822     -2.6037527     -0.0130695
X         10.3455674     -3.8349337     -0.0122938
H         10.9807069     -1.8906384     -0.0132773
C          0.9459613    -10.4158795     -0.0081804
X         -0.0000142    -11.2329660     -0.0079799
H          1.9947650    -10.7807215     -0.0122684
C        -10.1294187      2.6037738      0.0271619
X        -10.3455532      3.8349271      0.0202736
H        -10.9805903      1.8906798      0.0380902
H         -7.8870045      4.0802357     -0.0867518
H          7.8866734     -4.0800323     -0.1214444
H          2.7630016     -8.4390884      0.1013609
H         -2.7625613      8.4389353      0.1250155
H         -5.5248412      3.3388508     -0.0949629
H          5.5244980     -3.3386417     -0.1200534
H          2.4099580     -5.9886072      0.1074080
H         -2.4095056      5.9884486      0.1257885
C         -9.4257791     -0.2577607      0.1398450
O        -10.5429684     -0.1486233     -0.3564253
H         -9.3683023     -1.2439311      0.6470727
C          9.4262554      0.2575911      0.1068059
O         10.5674080      0.1171353     -0.3225539
H          9.3471426      1.2722005      0.5511305
C         -1.7658724     -9.2626538     -0.1187005
O         -2.8635535     -9.0056658     -0.6038401
H         -1.7952946    -10.3023744      0.2701836
C          1.7655053      9.2628739     -0.1097702
O          2.8337734      9.0371621     -0.6702742
H          1.8215276     10.2741939      0.3454318
H         -6.8061990     -0.7608986      0.1001089
H          6.8065522      0.7607858      0.0771950
H         -1.8424389     -6.5962525     -0.0817035
H          1.8421950      6.5964158     -0.0774203
