44
R4_PRLN_CHO_OH_H
C         -3.6381403     -0.7150488      0.0000000
C         -3.1128654     -2.0142825      0.0000000
C         -1.7249853     -2.2090553      0.0000000
C         -0.8624823     -1.1045144      0.0000000
C         -2.7756083      0.3894694      0.0000000
C         -1.1995690     -3.5083186      0.0000000
C          0.5252803     -1.2991953      0.0000000
C          1.0507221     -2.5983978      0.0000000
C          0.1882481     -3.7029613      0.0000000
C         -1.3877811      0.1946572      0.0000000
C          1.3877811     -0.1946572      0.0000000
C         -0.5252803      1.2991953      0.0000000
C          0.8624823      1.1045144      0.0000000
C         -1.0507221      2.5983978      0.0000000
C          1.7249853      2.2090553      0.0000000
C         -0.1882481      3.7029613      0.0000000
C          2.7756083     -0.3894694      0.0000000
C          3.1128654      2.0142825      0.0000000
C          1.1995690      3.5083186      0.0000000
C          3.6381403      0.7150488      0.0000000
C         -0.7692968      5.1399311      0.0000000
X          0.0000000      6.1251633      0.0000000
H         -1.8689912      5.2941643      0.0000000
C          5.1731057      0.4996863      0.0000000
X          5.6416326     -0.6591850      0.0000000
H          5.8565687      1.3748971      0.0000000
C          0.7692968     -5.1399311      0.0000000
X         -0.0000000     -6.1251633      0.0000000
H          1.8689912     -5.2941643      0.0000000
C         -5.1731057     -0.4996863      0.0000000
X         -5.6416326      0.6591850      0.0000000
H         -5.8565687     -1.3748971      0.0000000
O         -2.4666659      2.7972513      0.0000000
H         -3.0907633      1.9891053      0.0000000
O         -3.3117870      1.7149701      0.0000000
H         -4.3237537      1.8510615      0.0000000
O          2.4666659     -2.7972513      0.0000000
H          3.0907633     -1.9891053      0.0000000
O          3.3117870     -1.7149701      0.0000000
H          4.3237537     -1.8510615      0.0000000
H          1.8763432      4.3746357      0.0000000
H         -1.8763432     -4.3746357      0.0000000
H         -3.7892755     -2.8808839      0.0000000
H          3.7892755      2.8808839      0.0000000
