32
R4_PRLN_NH2_H_H
C         -3.7016614     -0.2122790      0.0000000
C         -3.3584543     -1.5710030      0.0000000
C         -2.0100964     -1.9532055      0.0000000
C         -1.0050362     -0.9765910      0.0000000
C         -2.6965755      0.7643091      0.0000000
C         -1.6667532     -3.3119781      0.0000000
C          0.3432177     -1.3586866      0.0000000
C          0.6865945     -2.7174024      0.0000000
C         -0.3184401     -3.6940432      0.0000000
C         -1.3482755      0.3820746      0.0000000
C          1.3482755     -0.3820746      0.0000000
C         -0.3432177      1.3586866      0.0000000
C          1.0050362      0.9765910      0.0000000
C         -0.6865945      2.7174024      0.0000000
C          2.0100964      1.9532055      0.0000000
C          0.3184401      3.6940432      0.0000000
C          2.6965755     -0.7643091      0.0000000
C          3.3584543      1.5710030      0.0000000
C          1.6667532      3.3119781      0.0000000
C          3.7016614      0.2122790      0.0000000
X         -0.0000000      4.9544384      0.0000000
X          4.9523971     -0.1422070      0.0000000
X          0.0000000     -4.9544384      0.0000000
X         -4.9523971      0.1422070      0.0000000
H         -1.7439452      3.0172294      0.0000000
H         -2.9659299      1.8298301      0.0000000
H          1.7439452     -3.0172294      0.0000000
H          2.9659299     -1.8298301      0.0000000
H          2.4553356      4.0779196      0.0000000
H         -2.4553356     -4.0779196      0.0000000
H         -4.1467148     -2.3372757      0.0000000
H          4.1467148      2.3372757      0.0000000
