90
S4_PHPR_CHO_OH_H_H_H_H_H
C         -1.4987386      2.7186497     -0.0002641
C         -2.9019618      3.2333767     -0.0002594
C         -3.7547332      2.1881724     -0.0002665
C         -2.9688346      0.9168177     -0.0002765
N         -1.6105959      1.3092788     -0.0002744
C         -3.4541825     -0.3505677     -0.0002855
C         -0.3505677      3.4541824     -0.0002365
C          0.9168177      2.9688346     -0.0002410
C          2.1881724      3.7547331     -0.0002274
N          1.3092788      1.6105958     -0.0002597
C          3.2333767      2.9019617     -0.0002376
C          2.7186497      1.4987385     -0.0002586
C         -2.7186497     -1.4987386     -0.0003094
C         -3.2333768     -2.9019618     -0.0003194
N         -1.3092789     -1.6105959     -0.0003012
C         -2.1881724     -3.7547332     -0.0003171
C         -0.9168178     -2.9688346     -0.0003053
C          3.4541824      0.3505676     -0.0002507
C          0.3505676     -3.4541825     -0.0002997
C          2.9688346     -0.9168178     -0.0002699
C          3.7547331     -2.1881724     -0.0002779
N          1.6105958     -1.3092789     -0.0002864
C          2.9019617     -3.2333768     -0.0002977
C          1.4987385     -2.7186497     -0.0003040
C         -4.9845475     -0.5225645     -0.0002858
C         -5.8000051      0.4877156     -0.5110055
C         -5.5554216     -1.6883606      0.5101752
C         -7.1860461      0.3324354     -0.5106059
C         -6.9418213     -1.8442625      0.5097455
C         -7.7571687     -0.8340664     -0.0004010
C         -0.5225645      4.9845475     -0.0002149
C         -1.6883983      5.5554100      0.5101729
C          0.4877533      5.8000166     -0.5108416
C         -1.8443002      6.9418097      0.5097629
C          0.3324731      7.1860576     -0.5104223
C         -0.8340664      7.7571686     -0.0002906
C          0.5225644     -4.9845475     -0.0003061
C          1.6883535     -5.5554244      0.5101677
C         -0.4877087     -5.8000023     -0.5110441
C          1.8442555     -6.9418241      0.5097324
C         -0.3324285     -7.1860433     -0.5106500
C          0.8340663     -7.7571687     -0.0004323
C          4.9845475      0.5225644     -0.0002352
C          5.5554128      1.6883912      0.5101653
C          5.8000138     -0.4877464     -0.5108802
C          6.9418125      1.8442932      0.5097499
C          7.1860547     -0.3324662     -0.5104664
C          7.7571686      0.8340663     -0.0003219
H         -0.8357689      0.6771055     -0.0002796
H          0.8357688     -0.6771055     -0.0002858
C         -1.0063532      9.2975638     -0.0000489
X         -0.0000000     10.0390173     -0.0000000
H         -2.0237935      9.7424580      0.0000808
C          1.0063531     -9.2975639     -0.0002188
X          0.0000000    -10.0390172      0.0003289
H          2.0237933     -9.7424582     -0.0005523
C          9.2975638      1.0063531     -0.0000863
X         10.0390173     -0.0000000     -0.0003242
H          9.7424580      2.0237933      0.0002937
C         -9.2975639     -1.0063532     -0.0001813
X        -10.0390173      0.0000000     -0.0000047
H         -9.7424581     -2.0237934     -0.0001808
O          1.3683099      8.0220133     -1.0330311
H          1.1230919      8.8705572     -1.5453190
O          8.0220076     -1.3682959     -1.0330940
H          7.7888706     -2.3457950     -0.8521517
O         -1.3682196     -8.0219844     -1.0333729
H         -1.2947336     -9.0361589     -0.9403822
O         -8.0219901      1.3682336     -1.0333101
H         -9.0043869      1.1732162     -1.2319609
H          7.3913843      2.7633104      0.9116617
H          2.7632431     -7.3914050      0.9117020
H         -7.3913999     -2.7632556      0.9117050
H         -2.7633229      7.3913793      0.9116647
H          1.4066987      5.3498742     -0.9122786
H          5.3498691     -1.4066864     -0.9123273
H         -1.4066190     -5.3498486     -0.9125488
H         -5.3498537      1.4066314     -0.9125001
H         -2.4845695      4.9130689      0.9123543
H          4.9130739      2.4845570      0.9123611
H          2.4844896     -4.9130945      0.9124367
H         -4.9130895     -2.4845021      0.9124299
H          4.8464822     -2.2047690     -0.0003072
H         -4.8464823      2.2047689     -0.0003044
H         -2.2047690     -4.8464823     -0.0003612
H          2.2047689      4.8464822     -0.0002505
H          3.1268382     -4.3113214     -0.0003204
H          4.3113213      3.1268382     -0.0002444
H         -3.1268383      4.3113213     -0.0002633
H         -4.3113214     -3.1268383     -0.0003393
