51
T3_DBA2_CHO_OH_H_H
C          0.1593852     -2.9319268      0.0000000
C         -0.9780029     -3.3091241      0.0000000
C         -2.4409109     -3.7940170      0.0000000
C         -2.7250395     -5.1604208      0.0000000
C         -3.4837008     -2.8664685      0.0000000
C         -4.0459285     -5.5998732      0.0000000
C         -4.8076649     -3.3079517      0.0000000
C         -5.0901350     -4.6710647      0.0000000
C         -2.9306246     -0.1834020      0.0000000
C         -3.1726562     -1.3570076      0.0000000
C          1.6241430     -2.4462944      0.0000000
C          2.7615312     -2.0690970      0.0000000
C         -2.6188157      1.3279317      0.0000000
C         -2.3767841      2.5015374      0.0000000
C          4.2242849     -1.5837391      0.0000000
C          5.2686027     -2.5095841      0.0000000
C          4.5061705     -0.2168823      0.0000000
C          6.5903282     -2.0726539      0.0000000
C          5.8315753      0.2202570      0.0000000
C          6.8725967     -0.7039403      0.0000000
C         -2.0652597      4.0108993      0.0000000
C         -3.1065358      4.9401638      0.0000000
C         -0.7405842      4.4502076      0.0000000
C         -2.8266682      6.3038135      0.0000000
C         -0.4609378      5.8175358      0.0000000
C         -1.5001932      6.7437185      0.0000000
C          0.4111250      3.4261047      0.0000000
C          1.3064815      2.6296963      0.0000000
C          2.4594304      1.6039951      0.0000000
C          3.3547870      0.8075867      0.0000000
C         -1.1865950      8.2616633      0.0000000
X         -0.0000000      8.6547184      0.0000000
H         -2.0160562      8.9999787      0.0000000
C         -6.5615128     -5.1584530      0.0000000
X         -7.4952060     -4.3273592      0.0000000
H         -6.7861821     -6.2459452      0.0000000
C          7.7481078     -3.1032102      0.0000000
X          7.4952060     -4.3273592      0.0000000
H          8.8022383     -2.7540334      0.0000000
O         -4.4631931      4.4880788      0.0000000
H         -4.6624527      3.4866332      0.0000000
O         -1.6551937     -6.1092780      0.0000000
H         -0.6882866     -5.7811191      0.0000000
O          6.1183868      1.6211993      0.0000000
H          5.3507393      2.2944859      0.0000000
H         -3.6482320      7.0340693      0.0000000
H         -4.2675667     -6.6764962      0.0000000
H          7.9157987     -0.3575731      0.0000000
H          0.5828828      6.1620345      0.0000000
H         -5.6279198     -2.5762260      0.0000000
H          5.0450370     -3.5858085      0.0000000
