54
T3_TPTZ_CONHNH2_OH_H_H_H
C         -0.1431206      1.3918033      0.0000000
C         -1.1337767     -0.8198478      0.0000000
C          1.2768974     -0.5719556      0.0000000
C         -2.3850215     -1.7250165      0.0000000
C         -3.6565724     -1.1749864      0.0000000
C         -2.2616699     -3.1046095      0.0000000
C         -4.7867550     -2.0034295      0.0000000
C         -3.4018681     -3.9189676      0.0000000
C         -4.6564492     -3.3674906      0.0000000
C         -0.3013973      2.9279974      0.0000000
C          0.8107182      3.7541778      0.0000000
C         -1.5578357      3.5109683      0.0000000
C          0.6583567      5.1471662      0.0000000
C         -1.6929914      4.9055880      0.0000000
C         -0.5881078      5.7163486      0.0000000
C          2.6864188     -1.2029810      0.0000000
C          2.8458543     -2.5791915      0.0000000
C          3.8195056     -0.4063588      0.0000000
C          4.1283984     -3.1437367      0.0000000
C          5.0948595     -0.9866204      0.0000000
C          5.2445571     -2.3488580      0.0000000
N          1.1334810      0.8198274      0.0000000
N          0.1432509     -1.3915370      0.0000000
N         -1.2767318      0.5717096      0.0000000
C         -0.7360348      7.1587832      0.0000000
O         -1.9032872      7.5311409      0.0000000
N          0.3416469      8.1128214      0.0000000
X         -0.0000000      9.3836365      0.0000000
H          1.3582090      8.1246568      0.0000000
C         -5.8316707     -4.2168164      0.0000000
O         -5.5705158     -5.4138655      0.0000000
N         -7.1967329     -3.7605358      0.0000000
X         -8.1264676     -4.6918182      0.0000000
H         -7.7152637     -2.8860849      0.0000000
C          6.5677055     -2.9419668      0.0000000
O          7.4738030     -2.1172754      0.0000000
N          6.8550860     -4.3522856      0.0000000
X          8.1264676     -4.6918183      0.0000000
H          6.3570547     -5.2385719      0.0000000
O          2.1190482      3.1769668      0.0000000
H          2.9397345      3.7844794      0.0000000
O         -3.8108580      0.2466661      0.0000000
H         -4.7473225      0.6536450      0.0000000
O          1.6918099     -3.4236330      0.0000000
H          1.8075880     -4.4381244      0.0000000
H          1.5452797      5.7964799      0.0000000
H         -5.7925386     -1.5599885      0.0000000
H          4.2472590     -4.2364914      0.0000000
H          5.9896331     -0.3481684      0.0000000
H         -2.6932938      5.3612586      0.0000000
H         -3.2963392     -5.0130902      0.0000000
H          3.7133826      0.6877062      0.0000000
H         -2.4522623      2.8720305      0.0000000
H         -1.2611202     -3.5597367      0.0000000
