34
T3_TPAM_NH2_H_H
C         -2.5689552     -2.8367254     -0.3139236
C         -1.3543286     -2.1349680     -0.3138315
C         -1.3341025     -0.7702444      0.0000000
C         -2.5261008     -0.1053990      0.3138315
C         -3.7411538     -0.8064177      0.3139236
C         -3.7614289     -2.1716620      0.0000000
H         -0.4433507     -2.6440278     -0.5539414
H         -2.5114706      0.9380609      0.5539414
C          1.3341025     -0.7702444      0.0000000
C          1.3543286     -2.1349680      0.3138315
C          2.5261008     -0.1053990     -0.3138315
C          2.5689552     -2.8367254      0.3139236
H          0.4433507     -2.6440278      0.5539414
C          3.7411538     -0.8064177     -0.3139236
H          2.5114706      0.9380609     -0.5539414
C          3.7614289     -2.1716620      0.0000000
C         -0.0000000      1.5404889      0.0000000
C         -1.1717722      2.2403669     -0.3138315
C          1.1717722      2.2403670      0.3138315
C         -1.1721987      3.6431431     -0.3139236
H         -2.0681199      1.7059669     -0.5539414
C          1.1721987      3.6431431      0.3139236
H          2.0681198      1.7059669      0.5539414
C         -0.0000000      4.3433240      0.0000000
N         -0.0000000     -0.0000000      0.0000000
X         -0.0000000      5.6433240      0.0000000
X          4.8872619     -2.8216620      0.0000000
X         -4.8872619     -2.8216620      0.0000000
H         -2.0913586      4.1926775     -0.5617091
H         -2.5852860     -3.9075084     -0.5617091
H          4.6766445     -0.2851691     -0.5617091
H          2.0913586      4.1926775      0.5617091
H          2.5852860     -3.9075084      0.5617091
H         -4.6766445     -0.2851691      0.5617091
