42
T3_TPBZ_NH2_H_H_H_H_H
C          1.2113899      0.6995931      0.0000000
C         -0.0000137      1.3991426      0.0000000
C         -1.2115603      0.6992979      0.0000000
C         -1.2116862     -0.6995831      0.0000000
C          0.0001704     -1.3988910      0.0000000
C          1.2116999     -0.6995595      0.0000000
C         -2.5489512     -1.4720249      0.0000000
C         -3.7575753     -0.7948227      0.0000000
C         -2.5673539     -2.8569992      0.0000000
C         -4.9665654     -1.5033238      0.0000000
C         -3.7848665     -3.5504647      0.0000000
C         -4.9764618     -2.8735589      0.0000000
C         -0.0003354      2.9434689      0.0000000
C          1.1904510      3.6515670      0.0000000
C         -1.1905569      3.6518933      0.0000000
C          1.1813661      5.0528337      0.0000000
C         -1.1823594      5.0530228      0.0000000
C         -0.0003442      5.7465218      0.0000000
C          2.5492865     -1.4714440      0.0000000
C          2.5671243     -2.8567443      0.0000000
C          3.7579108     -0.7948942      0.0000000
C          3.7851993     -3.5495099      0.0000000
C          4.9672258     -1.5025582      0.0000000
C          4.9768059     -2.8729628      0.0000000
X          0.0000000      7.0465217      0.0000000
X         -6.1024668     -3.5232609      0.0000000
X          6.1024668     -3.5232608      0.0000000
H          2.1632959      1.2492436      0.0000000
H          0.0002287     -2.4980910      0.0000000
H         -2.1635246      1.2488474      0.0000000
H          2.1454714      3.1073459      0.0000000
H         -3.7637762      0.3043598      0.0000000
H          1.6183048     -3.4117057      0.0000000
H          2.1300506      5.6080257      0.0000000
H         -5.9217180     -0.9593349      0.0000000
H          3.7916674     -4.6486908      0.0000000
H          5.9226088     -0.9589738      0.0000000
H         -2.1308087      5.6086165      0.0000000
H         -3.7918001     -4.6496428      0.0000000
H          3.7642475      0.3042875      0.0000000
H         -2.1456444      3.1077902      0.0000000
H         -1.6186030     -3.4120777      0.0000000
